tests/golden/reports/dump3_commands.txt
[execcommands]
1, "New", "Create a new object within the DSS. Object becomes the active object
Example: New Line.line1 ..."
2, "Edit", "Edit an object. The object is selected and it then becomes the active object.

Note that Edit is the default command.  You many change a property value simply by giving the full property name and the new value, for example:

line.line1.r1=.04
vsource.source.kvll=230"
3, "More", "Continuation of editing on the active object."
4, "M", "Continuation of editing on the active object. An abbreviation for More"
5, "~", "Continuation of editing on the active object. An abbreviation.

Example:
New Line.Line1 Bus1=aaa  bus2=bbb
~ R1=.058
~ X1=.1121"
6, "Select", "Selects an element and makes it the active element.  You can also specify the active terminal (default = 1).

Syntax:
Select [element=]elementname  [terminal=]terminalnumber 

Example:
Select Line.Line1 
~ R1=.1
(continue editing)

Select Line.Line1 2 
Voltages  (returns voltages at terminal 2 in Result)"
7, "Save", "{Save [class=]{Meters | Circuit | Voltages | (classname)} [file=]filename [dir=]directory 

Default class = Meters, which saves the present values in both monitors and energy meters in the active circuit. 

"Save Circuit" saves the present enabled circuit elements to the specified subdirectory in standard DSS form with a Master.dss file and separate files for each class of data. 

If Dir= not specified a unique name based on the circuit name is created automatically. 

If Dir= is specified, any existing files are overwritten. 

"Save Voltages" saves the present solution in a simple CSV format in a file called DSS_SavedVoltages. Used for VDIFF command.

Any class can be saved to a file.  If no filename specified, the classname is used."
8, "Show", "Writes selected results to a text file and brings up the default text editor (see Set Editor=....) with the file for you to browse.

See separate help on Show command. 

Default is "show voltages LN Seq".  "
9, "Solve", "Perform the solution of the present solution mode. You can set any option that you can set with the Set command (see Set). The Solve command is virtually synonymous with the Set command except that a solution is performed after the options are processed."
10, "Enable", "Enables a circuit element or entire class.  Example:
Enable load.loadxxx
Enable generator.*  (enables all generators)"
11, "Disable", "Disables a circuit element or entire class.  Example:
Disable load.loadxxx
Disable generator.*  (Disables all generators)

The item remains defined, but is not included in the solution."
12, "Plot", "Plots circuits and results in a variety of manners.  See separate Plot command help."
13, "Reset", "{MOnitors | MEters | Faults | Controls | Eventlog | Keeplist |(no argument) } Resets all Monitors, Energymeters, etc. If no argument specified, resets all options listed."
14, "Compile", "Reads the designated file name containing DSS commands and processes them as if they were entered directly into the command line. The file is said to be "compiled." Similar to "redirect" except changes the default directory to the path of the specified file.

Syntax:
Compile filename

**Note**: on DSS-Extensions, we recommend using relative paths for `Redirect` and `Compile`, when possible. This is especially useful when running scripts from ZIP archives."
15, "Set", "Used to set various DSS solution modes and options.  You may also set the options with the Solve command. See "Options" for help."
16, "Dump", "Display the properties of either a specific DSS object or a complete dump on all variables in the problem (Warning! Could be very large!). Brings up the default text editor with the text file written by this command.
 Syntax: dump [class.obj] [debug]
 Examples:

 Dump line.line1 
 Dump solution  (dumps all solution vars) 
 Dump commands  (dumps all commands to a text file) 
 Dump transformer.*  (dumps all transformers)
 Dump ALLOCationfactors  (load allocation factors)
 Dump Buslist    (bus name hash list)
 Dump Devicelist    (Device name hash list)
 Dump      (dumps all objects in circuit) "
17, "Open", "Opens the specified terminal and conductor of the specified circuit element. If the conductor is not specified, all phase conductors of the terminal are opened.

Examples:
Open line.line1 2 
(opens all phases of terminal 2)

Open line.line1 2 3
(opens the 3rd conductor of terminal 2)

As a side effect, the bus of affected terminal is activated."
18, "Close", "Opposite of the Open command."
19, "//", "Comment.  Command line is ignored."
20, "Redirect", "Reads the designated file name containing DSS commands and processes them as if they were entered directly into the command line. Similar to "Compile", but leaves current directory where it was when Redirect command is invoked.Can temporarily change to subdirectories if nested Redirect commands require.

ex:  redirect filename

**Note**: on DSS-Extensions, we recommend using relative paths for `Redirect` and `Compile`, when possible. This is especially useful when running scripts from ZIP archives."
21, "Help", "Gives this display."
22, "Quit", "Shuts down DSS unless this is the DLL version.  Then it does nothing;  DLL parent is responsible for shutting down the DLL."
23, "?", "Inquiry for property value.  Result is put into GlobalResult and can be seen in the Result Window. Specify the full property name.

Example: ? Line.Line1.R1

Note you can set this property merely by saying:
Line.line1.r1=.058"
24, "Next", "{Year | Hour | t}  Increments year, hour, or time as specified.  If "t" is specified, then increments time by current step size."
25, "Panel", "Displays main control panel window."
26, "Sample", "Force all monitors and meters to take a sample for the most recent solution. Keep in mind that meters will perform integration."
27, "Clear", "Clear all circuits currently in memory."
28, "About", "Display "About Box".  (Result string set to Version string.)"
29, "Calcvoltagebases", "Calculates voltage base for buses based on voltage bases defined with Set voltagebases=... command."
30, "SetkVBase", "Command to explicitly set the base voltage for a bus. Bus must be previously defined. Parameters in order are:
Bus = {bus name}
kVLL = (line-to-line base kV)
kVLN = (line-to-neutral base kV)

kV base is normally given in line-to-line kV (phase-phase). However, it may also be specified by line-to-neutral kV.
The following examples are equivalent:

setkvbase Bus=B9654 kVLL=13.2
setkvbase B9654 13.2
setkvbase B9654 kvln=7.62"
31, "BuildY", "Forces rebuild of Y matrix upon next Solve command regardless of need. The usual reason for doing this would be to reset the matrix for another load level when using LoadModel=PowerFlow (the default) when the system is difficult to solve when the load is far from its base value.  Works by invalidating the Y primitive matrices for all the Power Conversion elements."
32, "Get", "Returns DSS property values set using the Set command. Result is returned in Result property of the Text interface. 

VBA Example:

DSSText.Command = "Get mode"
Answer = DSSText.Result

Multiple properties may be requested on one get.  The results are appended and the individual values separated by commas.

See help on Set command for property names."
33, "Init", "This command forces reinitialization of the solution for the next Solve command. To minimize iterations, most solutions start with the previous solution unless there has been a circuit change.  However, if the previous solution is bad, it may be necessary to re-initialize.  In most cases, a re-initiallization results in a zero-load power flow solution with only the series power delivery elements considered."
34, "Export", "Export various solution values to CSV (or XML) files for import into other programs. Creates a new file except for Energymeter and Generator objects, for which the results for each device of this class are APPENDED to the CSV File. You may export to a specific file by specifying the file name as the LAST parameter on the line. For example:

  Export Voltage Myvoltagefile.csv

Otherwise, the default file names shown in the Export help are used. For Energymeter and Generator, specifying the switch "/multiple" (or /m) for the file name will cause a separate file to be written for each meter or generator. The default is for a single file containing all elements.

May be abreviated Export V, Export C, etc.  Default is "V" for voltages. If Set ShowExport=Yes, the output file will be automatically displayed in the default editor. Otherwise, you must open the file separately. The name appears in the Result window."
35, "Fileedit", "Edit specified file in default text file editor (see Set Editor= option).

Fileedit EXP_METERS.csv (brings up the meters export file)

"FileEdit" may be abbreviated to a unique character string."
36, "Voltages", "Returns the voltages for the ACTIVE BUS in the Result string. For setting the active Bus, use the Select command or the Set Bus= option. Returned as magnitude and angle quantities, comma separated, one set per conductor of the terminal."
37, "Currents", "Returns the currents for each conductor of ALL terminals of the active circuit element in the Result string. (See Select command.)Returned as comma-separated magnitude and angle."
38, "Powers", "Returns the powers (complex) going into each conductors of ALL terminals of the active circuit element in the Result string. (See Select command.)Returned as comma-separated kW and kvar."
39, "Seqvoltages", "Returns the sequence voltages at all terminals of the active circuit element (see Select command) in Result string.  Returned as comma-separated magnitude only values.Order of returned values: 0, 1, 2  (for each terminal)."
40, "Seqcurrents", "Returns the sequence currents into all terminals of the active circuit element (see Select command) in Result string.  Returned as comma-separated magnitude only values.Order of returned values: 0, 1, 2  (for each terminal)."
41, "Seqpowers", "Returns the sequence powers into all terminals of the active circuit element (see Select command) in Result string.  Returned as comma-separated kw, kvar pairs.Order of returned values: 0, 1, 2  (for each terminal)."
42, "Losses", "Returns the total losses for the active circuit element (see Select command) in the Result string in kW, kvar."
43, "Phaselosses", "Returns the losses for the active circuit element (see Select command) for each PHASE in the Result string in comma-separated kW, kvar pairs."
44, "Cktlosses", "Returns the total losses for the active circuit in the Result string in kW, kvar."
45, "Allocateloads", "Estimates the allocation factors for loads that are defined using the XFKVA property. Requires that energymeter objects be defined with the PEAKCURRENT property set. Loads that are not in the zone of an energymeter cannot be allocated."
46, "Formedit", "FormEdit [class.object].  Brings up form editor on active DSS object."
47, "Totals", "Totals all EnergyMeter objects in the circuit and reports register totals in the result string."
48, "Capacity", "Find the maximum load the active circuit can serve in the PRESENT YEAR. Uses the EnergyMeter objects with the registers set with the SET UEREGS= (..) command for the AutoAdd functions.  Syntax (defaults shown):

capacity [start=]0.9 [increment=]0.005

Returns the metered kW (load + losses - generation) and per unit load multiplier for the loading level at which something in the system reports an overload or undervoltage. If no violations, then it returns the metered kW for peak load for the year (1.0 multiplier). Aborts and returns 0 if no energymeters."
49, "Classes", "List of intrinsic DSS Classes. Returns comma-separated list in Result variable."
50, "Userclasses", "List of user-defined DSS Classes. Returns comma-separated list in Result variable."
51, "Zsc", "Returns full Zsc matrix for the ACTIVE BUS in comma-separated complex number form."
52, "Zsc10", "Returns symmetrical component impedances, Z1, Z0 for the ACTIVE BUS in comma-separated R+jX form."
53, "ZscRefresh", "Refreshes Zsc matrix for the ACTIVE BUS."
54, "Ysc", "Returns full Ysc matrix for the ACTIVE BUS in comma-separated complex number form G + jB."
55, "puvoltages", "Just like the Voltages command, except the voltages are in per unit if the kVbase at the bus is defined."
56, "VarValues", "Returns variable values for active element if PC element. Otherwise, returns null."
57, "Varnames", "Returns variable names for active element if PC element. Otherwise, returns null."
58, "Buscoords", "Define x,y coordinates for buses.  Execute after Solve or MakeBusList command is executed so that bus lists are defined.Reads coordinates from a CSV file with records of the form: busname, x, y.

Example: BusCoords [file=]xxxx.csv"
59, "MakeBusList", "Updates the buslist, if needed, using the currently enabled circuit elements.  (This happens automatically for Solve command.) See ReprocessBuses"
60, "MakePosSeq", "Attempts to convert present circuit model to a positive sequence equivalent. It is recommended to Save the circuit after this and edit the saved version to correct possible misinterpretations."
61, "Reduce", "{All | MeterName}  Default is "All".  Reduce the circuit according to reduction options. See "Set ReduceOptions" and "Set Keeplist" options.Energymeter objects actually perform the reduction.  "All" causes all meters to reduce their zones."
62, "Interpolate", "{All | MeterName}  Default is "All". Interpolates coordinates for missing bus coordinates in meter zone"
63, "AlignFile", "Alignfile [file=]filename.  Aligns DSS script files in columns for easier reading."
64, "TOP", "[class=]{Loadshape | Tshape | Monitor  } [object=]{ALL (Loadshapes only) | objectname}. Send specified object to TOP.  Loadshapes and TShapes must be hourly fixed interval. "
65, "Rotate", "Usage: Rotate [angle=]nnn.  Rotate circuit plotting coordinates by specified angle (degrees). "
66, "Vdiff", "Displays the difference between the present solution and the last on saved using the SAVE VOLTAGES command."
67, "Summary", "Returns a power flow summary of the most recent solution in the global result string."
68, "Distribute", "kw=nn how={Proportional* | Uniform |Random | Skip} skip=nn PF=nn file=filename MW=nn What=[Generator*|Load]

Creates a DSS script file to distribute Generator or Load objects on the system in the manner specified by "how".
kW = total generation to be distributed (default=1000) 
how= process name as indicated (default=proportional to load)
skip = no. of buses to skip for "How=Skip" (default=1)
PF = power factor for new generators (default=1.0)
file = name of file to save (default=distgenerators.dss or distloads.dss)
MW = alternate way to specify kW (default = 1)
What = what type of device to add, Generator (default) or Load"
69, "DI_plot", "[case=]casename [year=]yr [registers=](reg1, reg2,...)  [peak=]y/n  [meter=]metername
Plots demand interval (DI) results from yearly simulation cases.  Plots selected registers from selected meter file (default = DI_Totals.csv).  Peak defaults to NO.  If YES, only daily peak of specified registers is plotted. Example:

 DI_Plot basecase year=5 registers=(9,11) no"
70, "Comparecases", "[Case1=]casename [case2=]casename [register=](register number) [meter=]{Totals* | SystemMeter | metername}. 
Compares yearly simulations of two specified cases with respect to the quantity in the designated register from the designated meter file. Defaults: Register=9 meter=Totals.  Example:

Comparecases base pvgens 10"
71, "YearlyCurves", "[cases=](case1, case2, ...) [registers=](reg1, reg2, ...)  [meter=]{Totals* | SystemMeter | metername}Plots yearly curves for specified cases and registers. 
Default: meter=Totals. Example: 

yearlycurves cases=(basecase, pvgens) registers=9"
72, "CD", "Change default directory to specified directory

CD dirname
On OpenDSS, this actually changes the current working directory of the whole hosting process.
For DSS-Extensions, there is an option to track the directory internally, while avoiding process-wide changes. This is required to allow running multiple instances of the DSS engine in the same process while keeping a consistent state. This option is currently disabled, but it will be enabled in a future version."
73, "Visualize", "[What=] one of {Currents* | Voltages | Powers} [element=]full_element_name  (class.name). Shows the selected quantity for selected element on a multiphase line drawing in phasor values."
74, "CloseDI", "Close all DI files ... useful at end of yearly solution where DI files are left open. (Reset and Set Year=nnn will also close the DI files)"
75, "DOScmd", "Do a DOS command. Sends the command "cmd ... " to Windows. Execute the "cmd /?" command in a DOS window to see the options. To do a DOS command and automatically exit, do 

DOScmd /c ...command string ...

To keep the DOS window open, use /k switch.
**Note**: DOScmd is deprecated and disabled by default on DSS-Extensions. Remember to enable it through the `AllowDOSCmd` API before using on scripts."
76, "Estimate", "Execute state estimator on present circuit given present sensor values."
77, "Reconductor", "Reconductor a line section. Must be in an EnergyMeter zone. 
Syntax: Reconductor Line1=... Line2=... {LineCode= | Geometry = } EditString="..." NPhases=#
Line1 and Line2 may be given in any order. All lines in the path between the two are redefined with either the LineCode or Geometry (not both). You may also add an optional string the alter any other line properties. The edit string should be enclosed in quotes or parentheses or brackets.
Nphases is an optional filter on the number of phases in line segments to change."
78, "_InitSnap", "For step control of solution process: Initialize iteration counters, etc. that normally occurs at the start of a snapshot solution process."
79, "_SolveNoControl", "For step control of solution process: Solves the circuit in present state but does not check for control actions."
80, "_SampleControls", "For step control of solution process: Sample the control elements, which push control action requests onto the control queue."
81, "_DoControlActions", "For step control of solution process: Pops control actions off the control queue according to the present control mode rules. Dispatches control actions to proper control element "DoPendingAction" handlers."
82, "_ShowControlQueue", "For step control of solution process: Show the present control queue contents."
83, "_SolveDirect", "For step control of solution process: Invoke direct solution function in DSS. Non-iterative solution of Y matrix and active sources only."
84, "_SolvePFlow", "For step control of solution process: Invoke iterative power flow solution function of DSS directly."
85, "AddBusMarker", "Add a marker to a bus in a circuit plot. Markers must be added before issuing the Plot command. Effect is persistent until circuit is cleared. See also ClearBusMarkers command. Example: 

ClearBusMarkers    !...Clears any previous bus markers
AddBusMarker Bus=Mybusname code=5 color=Red size=3

You can use any of the standard color names  or RGB numbers. See Help on C1 property in Plot command."
86, "Uuids", "Read UUIDs (v4) for class names and other CIM objects. Tab or comma-delimited file with full object name (or key) and UUID. Side effect is to start a new UUID list for the Export CIM100 command; the UUID list is freed after the Export UUIDs command."
87, "SetLoadAndGenKV", "Set load and generator object kv to agree with the bus they are connected to using the bus voltage base and connection type."
88, "CvrtLoadshapes", "Convert all Loadshapes presently loaded into either files of single or files of double. Usually files of singles are adequate precision for loadshapes.  Syntax:

cvrtloadshapes type=sng  (this is the default)
cvrtloadshapes type=dbl

A DSS script for loading the loadshapes from the created files is produced and displayed in the default editor. "
89, "NodeDiff", "Global result is set to voltage difference, volts and degrees, (Node1 - Node2) between any two nodes. Syntax:

   NodeDiff Node1=MyBus.1 Node2=MyOtherBus.1"
90, "Rephase", "Generates a script to change the phase designation of all lines downstream from a start in line. Useful for such things as moving a single-phase lateral from one phase to another and keep the phase designation consistent for reporting functions that need it to be (not required for simply solving). 

StartLine=... PhaseDesignation="..."  EditString="..." ScriptFileName=... StopAtTransformers=Y/N/T/F

Enclose the PhaseDesignation in quotes since it contains periods (dots).
You may add and optional EditString to edit any other line properties.

Rephase StartLine=Line.L100  PhaseDesignation=".2"  EditString="phases=1" ScriptFile=Myphasechangefile.dss  Stop=No"
91, "SetBusXY", "Bus=...  X=...  Y=... Set the X, Y coordinates for a single bus. Prerequisite: Bus must exist as a result of a Solve, CalcVoltageBases, or MakeBusList command."
92, "UpdateStorage", "Update Storage elements based on present solution and time interval. "
93, "Obfuscate", "Change Bus and circuit element names to generic values to remove identifying names. Generally, you will follow this command immediately by a "Save Circuit Dir=MyDirName" command."
94, "LatLongCoords", "Define x,y coordinates for buses using Latitude and Longitude values (decimal numbers).  Similar to BusCoords command. Execute after Solve command or MakeBusList command is executed so that bus lists are defined.Reads coordinates from a CSV file with records of the form: busname, Latitude, Longitude.

Example: LatLongCoords [file=]xxxx.csv

Note: Longitude is mapped to x coordinate and Latitude is mapped to y coordinate."
95, "BatchEdit", "Batch edit objects in the same class. Example: BatchEdit Load..* duty=duty_shape
In place of the object name, supply a PERL regular expression. .* matches all names.
The subsequent parameter string is applied to each object selected."
96, "Pstcalc", "Pst calculation. PstCalc Npts=nnn Voltages=[array] dt=nnn freq=nn lamp=120 or 230.
Set Npts to a big enough value to hold the incoming voltage array. 
dt = time increment in seconds. default is 1
freq = base frequency in Hz 50 or 60. Default is default base frequency
Lamp= 120 for North America; 230 for Europe. Default is 120

PSTCalc Npts=1900 V=[file=MyCSVFile.csv, Col=3, Header=y] dt=1 freq=60 lamp=120"
97, "Variable", "[name=] MyVariableName  [Index=] IndexofMyVariable 

Returns the value of the specified state variable of the active circuit element, if a PCelement. Returns the value as a string in the Result window or the Text.Result interface if using one of the APIs. 

You may specify the variable by name or by its index. You can determine the index using the VarNames command. If any part of the request is invalid, the Result is null."
98, "ReprocessBuses", "Forces reprocessing of bus definitions whether there has been a change or not. Use for rebuilding meter zone lists when a line length changes, for example or some other event that would not normally trigger an update to the bus list."
99, "ClearBusMarkers", "Clear all bus markers created with the AddBusMarker command."
100, "RelCalc", "[restore=Y/N]Perform reliability calcs: Failure rates and number of interruptions. 

Optional parameter:

If restore=y automatic restoration of unfaulted section is assumed."
101, "var", "Define and view script variables.  Variable names begin with "@"

Usage:

var @varname1=values  @varname2=value2    ...
var @varname1  (shows the value of @varname1)
var            (displays all variables and values)

Example of using a variable:

FileEdit @LastFile"
102, "Cleanup", "Force execution of the end-of-time-step cleanup functions that samples/saves meters and updates selected state variables such as storage level"
103, "FinishTimeStep", "Do Cleanup, sample monitors, and increment time."
104, "NodeList", "[Circuit element name] (Optional) Returns a list of node numbers for all conductors of all terminals of the active circuit element in the Result window or interface.If the optional circuit element name is supplied, the program makes it the active element. Usage:

NodeList
NodeList Line.Myline"
105, "Connect", "Request to create a TCP/IP socket to communicate data with external modules. This function requires the host address and TCP port to connect. **Not supported on DSS-Extensions**"
106, "Disconnect", "Request to terminate a TCP/IP socket. This function requires the host address and TCP port to disconnect. **Not supported on DSS-Extensions**"
107, "Remove", "{ElementName=} [KeepLoad=Y*/N] [EditString="..."] Remove (disable) all branches downline from the PDelement named by "ElementName" property. Circuit must have an Energymeter on this branch. If KeepLoad=Y (default) a new Load element is defined and kW, kvar set to present power flow solution for the first element eliminated. The EditString is applied to each new Load element defined. 
If KeepLoad=N, all downline elements are disabled. Examples: 

Remove Line.Lin3021
Remove Line.L22 Editstring="Daily=Dailycurve Duty=SolarShape
Remove Line.L333 KeepLoad=No"
108, "CalcIncMatrix", "Calculates the incidence matrix of the Active Circuit"
109, "CalcIncMatrix_O", "Calculates the incidence matrix of the Active Circuit. However, in this case the matrix will be calculated considering its hierarchical order,listing the buses starting from the substation to the farthest load in the model"
110, "Refine_BusLevels", "This function takes the bus levels array and traces all the possible paths considering the longest paths from the substation to the farthest branches within the circuit. Then, the new paths are filled with 0 to complement the original levels proposed by the calcincmatrix_o command."
111, "CalcLaplacian", "Calculate the laplacian matrix using the incidence matrix previously calculated. Before calling this command the incidence matrix needs to be calculated using calcincmatrix/calcincmatrix_o."
112, "ExportOverloads", "Exports the overloads report with the content available at the moment of the call. It only affects the overloads report for the active actor."
113, "ExportVViolations", "Exports the voltage violations1 report with the content available at the moment of the call. It only affects the voltage violations report for the active actor."
114, "Zsc012", "Returns symmetrical component short circuit impedances Z0, Z1, and Z2 for the ACTIVE 3-PHASE BUS. Determined from Zsc matrix."
115, "AllPCEatBus", "Brings back the names of all PCE connected to the bus specified in the argument.
The command goes as follows:

AllPCEatBus myBus

Where "myBus" is the name of the bus of interest"
116, "AllPDEatBus", "Brings back the names of all PDE connected to the bus specified in the argument.
The command goes as follows:

AllPDEatBus myBus

Where "myBus" is the name of the bus of interest"
117, "TotalPowers", "Returns the total powers (complex) at ALL terminals of the active circuit element in the Result string. (See Select command.)Returned as comma-separated kW and kvar."
118, "GISCoords", "Define x,y coordinates for buses using real GIS Latitude and Longitude values (decimal numbers).  Similar to BusCoords command. Execute after Solve command or MakeBusList command is executed so that bus lists are defined.Reads coordinates from a CSV file with records of the form: busname, Latitude, Longitude.

Example: GISCoords [file=]xxxx.csv

Note: For using only if OpenDSS-GIS is locally installed. **Not supported (no-op) on DSS-Extensions**"
119, "ClearAll", "Clears all the circuits and all the actors, after this instruction there will be only 1 actor (actor 1) and will be the active actor"
120, "COMHelp", "Shows the documentation file for the COM interface.This file provides guidance on the properties and methods included in the COM interface as well as examples and tips. Use this file to learn more about the COM interface and its different interfaces or just as a reference guide."
121, "NewActor", "This command creates a new actor (OpenDSS Instance) and sets the new actor as the active actor. There can be only 1 circuit per actor. The NewActor command will increment the variable NumOfActors; however, if the number of actors is the same as the number of available CPUs the new actor will not be created generating an error message. This instruction will deliver the ID of the active actor. This command does not requires a precedent command."
122, "Wait", "Pauses the scripting thread until all the active actors are Ready to receive new commands (have finished all their tasks and are ready to receive new simulation orders)."
123, "SolveAll", "Solves all the circuits (Actors) loaded into memory by the user"
124, "Abort", "Aborts all the simulations running"
125, "Clone", "Clones the active circuit. This command creates as many copies of the active circuit as indicated in the argument if the number of requested clones does not overpasses the number of local CPUs. The form of this command is clone X whereX is the number of clones to be created"
[execoptions]
1, "type", "Sets the active DSS class type.  Same as Class=..."
2, "element", "Sets the active DSS element by name. You can use the complete object spec (class.name) or just the name.  if full name is specifed, class becomes the active class, also."
3, "hour", "Sets the hour used for the start time of the solution."
4, "sec", "Sets the seconds from the hour for the start time of the solution."
5, "year", "Sets the Year (integer number) to be used for the solution. for certain solution types, this determines the growth multiplier."
6, "frequency", "Sets the frequency for the solution of the active circuit."
7, "stepsize", "Sets the time step size for the active circuit.  Default units are s. May also be specified in minutes or hours by appending "m" or "h" to the value. For example:

   stepsize=.25h 
  stepsize=15m
  stepsize=900s"
8, "mode", "Set the solution Mode: One of
  Snapshot,
  Daily,
  Yearly (follow Yearly curve),
  DIrect,
  DUtycycle,
  Time, ( see LoadShapeClass option)
  DYnamic,  ( see LoadShapeClass option)
  Harmonic,
  HarmonicT,  (sequential Harmonic Mode)
  M1 (Monte Carlo 1),
  M2 (Monte Carlo 2),
  M3 (Monte Carlo 3),
  Faultstudy,
  MF (monte carlo fault study)
  Peakday,
  LD1 (load-duration 1)
  LD2 (load-duration 2)
  AutoAdd (see AddType)
  YearlyVQ (Yearly Vector Quantization)
  DutyVQ (Duty Vector Quantization)

Side effect: setting the Mode property resets all monitors and energy meters. It also resets the time step, etc. to defaults for each mode.  After the initial reset, the user must explicitly reset the monitors and/or meters until another Set Mode= command."
9, "random", "One of [Uniform | Gaussian | Lognormal | None ] for Monte Carlo Variables."
10, "number", "Number of solutions or time steps to perform for each Solve command. Defaults for selected modes: 

Daily = 24
Yearly = 8760
Duty = 100"
11, "time", "Specify the solution start time as an array:
time=(hour, secs)"
12, "class", "Synonym for Type=. (See above)"
13, "object", "Synonym for Element=. (See above)"
14, "circuit", "Set the active circuit by name."
15, "editor", "Set the command string required to start up the editor preferred by the user. Does not require a circuit defined."
16, "tolerance", "Sets the solution tolerance.  Default is 0.0001."
17, "maxiterations", "Sets the maximum allowable iterations for power flow solutions. Default is 15."
18, "h", "Alternate name for time step size."
19, "Loadmodel", "{Powerflow | Admittance} depending on the type of solution you wish to perform. If admittance, a non-iterative, direct solution is done with all loads and generators modeled by their equivalent admittance."
20, "Loadmult", "Global load multiplier for this circuit.  Does not affect loads designated to be "fixed".  All other base kW values are multiplied by this number. Defaults to 1.0 when the circuit is created. As with other values, it always stays at the last value to which it was set until changed again."
21, "normvminpu", "Minimum permissible per unit voltage for normal conditions. Default is 0.95."
22, "normvmaxpu", "Maximum permissible per unit voltage for normal conditions. Default is 1.05."
23, "emergvminpu", "Minimum permissible per unit voltage for emergency (contingency) conditions. Default is 0.90."
24, "emergvmaxpu", "Maximum permissible per unit voltage for emergency (contingency) conditions. Default is 1.08."
25, "%mean", "Percent mean to use for global load multiplier. Default is 65%."
26, "%stddev", "Percent Standard deviation to use for global load multiplier. Default is 9%."
27, "LDCurve", "Set Load-Duration Curve. Global load multiplier is defined by this curve for LD1 and LD2 solution modes. Default is Nil."
28, "%growth", "Set default annual growth rate, percent, for loads with no growth curve specified. Default is 2.5."
29, "Genkw", "Size of generator, kW, to automatically add to system. Default is 1000.0"
30, "Genpf", "Power factor of generator to assume for automatic addition. Default is 1.0."
31, "CapkVAR", "Size of capacitor, kVAR, to automatically add to system.  Default is 600.0."
32, "Addtype", "{Generator | Capacitor} Default is Generator. Type of device for AutoAdd Mode."
33, "Allowduplicates", "{YES/TRUE | NO/FALSE}   Default is No. Flag to indicate if it is OK to have devices of same name in the same class. If No, then a New command is treated as an Edit command. If Yes, then a New command will always result in a device being added."
34, "Zonelock", "{YES/TRUE | NO/FALSE}  Default is No. if No, then meter zones are recomputed each time there is a change in the circuit. If Yes, then meter zones are not recomputed unless they have not yet been computed. Meter zones are normally recomputed on Solve command following a circuit change."
35, "UEweight", "Weighting factor for UE/EEN in AutoAdd functions.  Defaults to 1.0.

Autoadd mode minimizes

(Lossweight * Losses + UEweight * UE). 

If you wish to ignore UE, set to 0. This applies only when there are EnergyMeter objects. Otherwise, AutoAdd mode minimizes total system losses."
36, "Lossweight", "Weighting factor for Losses in AutoAdd functions.  Defaults to 1.0.

Autoadd mode minimizes

(Lossweight * Losses + UEweight * UE). 

If you wish to ignore Losses, set to 0. This applies only when there are EnergyMeter objects. Otherwise, AutoAdd mode minimizes total system losses."
37, "UEregs", "Which EnergyMeter register(s) to use for UE in AutoAdd Mode. May be one or more registers.  if more than one, register values are summed together. Array of integer values > 0.  Defaults to 11 (for Load EEN). 

for a list of EnergyMeter register numbers, do the "Show Meters" command after defining a circuit."
38, "Lossregs", "Which EnergyMeter register(s) to use for Losses in AutoAdd Mode. May be one or more registers.  if more than one, register values are summed together. Array of integer values > 0.  Defaults to 13 (for Zone kWh Losses). 

for a list of EnergyMeter register numbers, do the "Show Meters" command after defining a circuit."
39, "Voltagebases", "Define legal bus voltage bases for this circuit.  Enter an array of the legal voltage bases, in phase-to-phase voltages, for example:

set voltagebases=".208, .480, 12.47, 24.9, 34.5, 115.0, 230.0" 

When the CalcVoltageBases command is issued, a snapshot solution is performed with no load injections and the bus base voltage is set to the nearest legal voltage base. The defaults are as shown in the example above."
40, "Algorithm", "{Normal | Newton}  Solution algorithm type.  Normal is a fixed point iteration that is a little quicker than the Newton iteration.  Normal is adequate for most radial distribution circuits.  Newton is more robust for circuits that are difficult to solve.Diakoptics is used for accelerating the simulation using multicore computers"
41, "Trapezoidal", "{YES/TRUE | NO/FALSE}  Default is "No/False". Specifies whether to use trapezoidal integration for accumulating energy meter registers. Applies to EnergyMeter and Generator objects.  Default method simply multiplies the present value of the registers times the width of the interval (Euler). Trapezoidal is more accurate when there are sharp changes in a load shape or unequal intervals. Trapezoidal is automatically used for some load-duration curve simulations where the interval size varies considerably. Keep in mind that for Trapezoidal, you have to solve one more point than the number of intervals. That is, to do a Daily simulation on a 24-hr load shape, you would set Number=25 to force a solution at the first point again to establish the last (24th) interval.

Note: Set Mode= resets Trapezoidal to No/False. Set this to Yes/True AFTER setting the Mode option."
42, "Autobuslist", "Array of bus names to include in AutoAdd searches. Or, you can specify a text file holding the names, one to a line, by using the syntax (file=filename) instead of the actual array elements. Default is null, which results in the program using either the buses in the EnergyMeter object zones or, if no EnergyMeters, all the buses, which can make for lengthy solution times. 

Examples:

Set autobuslist=(bus1, bus2, bus3, ... )
Set autobuslist=(file=buslist.txt)"
43, "Controlmode", "{OFF | STATIC |EVENT | TIME}  Default is "STATIC".  Control mode for the solution. Set to OFF to prevent controls from changing.
STATIC = Time does not advance.  Control actions are executed in order of shortest time to act until all actions are cleared from the control queue.  Use this mode for power flow solutions which may require several regulator tap changes per solution.

EVENT = solution is event driven.  Only the control actions nearest in time are executed and the time is advanced automatically to the time of the event. 

TIME = solution is time driven.  Control actions are executed when the time for the pending action is reached or surpassed.

Controls may reset and may choose not to act when it comes their time. 
Use TIME mode when modeling a control externally to the DSS and a solution mode such as DAILY or DUTYCYCLE that advances time, or set the time (hour and sec) explicitly from the external program. "
44, "Tracecontrol", "{YES/TRUE | NO/FALSE}  Set to YES to trace the actions taken in the control queue.  Creates a file named TRACE_CONTROLQUEUE.csv in the default directory. The names of all circuit elements taking an action are logged."
45, "Genmult", "Global multiplier for the kW output of every generator in the circuit. Default is 1.0. Applies to all but Autoadd solution modes. Ignored for generators designated as Status=Fixed."
46, "Defaultdaily", "Default daily load shape name. Default value is "default", which is a 24-hour curve defined when the DSS is started."
47, "Defaultyearly", "Default yearly load shape name. Default value is "default", which is a 24-hour curve defined when the DSS is started."
48, "Allocationfactors", "Sets the connected kVA allocation factors for all loads in the active circuit to the value given."
49, "Cktmodel", "{Multiphase | Positive}  Default = Multiphase.  Designates whether circuit model is to interpreted as a normal multi-phase model or a positive-sequence only model"
50, "Pricesignal", "Sets the present price signal ($/MWh) for the circuit.  Default value is 25."
51, "Pricecurve", "Sets the PRICESHAPE object to use to obtain for price signal. Default is none (null string). If none, price signal either remains constant or is set by an external process using Set Price= option. Curve is defined as a PRICESHAPE  in actual values (not normalized) and should be defined to correspond to the type of analysis being performed (daily, yearly, etc.)."
52, "Terminal", "Set the active terminal of the active circuit element. May also be done with Select command."
53, "Basefrequency", "Default = 60. Set the fundamental frequency for harmonic solution and the default base frequency for all impedance quantities. Side effect: also changes the value of the solution frequency. Saved as default for next circuit."
54, "Harmonics", "{ALL | (list of harmonics) }  Default = ALL. Array of harmonics for which to perform a solution in Harmonics mode. If ALL, then solution is performed for all harmonics defined in spectra currently being used. Otherwise, specify a more limited list such as: 

   Set Harmonics=(1 5 7 11 13)"
55, "Maxcontroliter", "Max control iterations per solution.  Default is 10."
56, "Bus", "Set Active Bus by name.  Can also be done with Select and SetkVBase commands and the "Set Terminal="  option. The bus connected to the active terminal becomes the active bus. See Zsc and Zsc012 commands."
57, "Datapath", "Set the data path for files written or read by the DSS.
Defaults to the user documents folder.
If the DataPath is not writable, output files will be written to the user application data folder.
May be Null.  Executes a CHDIR to this path if non-null.
Does not require a circuit defined."
58, "KeepList", "Array of bus names to keep when performing circuit reductions. You can specify a text file holding the names, one to a line, by using the syntax (file=filename) instead of the actual array elements. Command is cumulative (reset keeplist first). Reduction algorithm may keep other buses automatically. 

Examples:

Reset Keeplist (sets all buses to FALSE (no keep))
Set KeepList=(bus1, bus2, bus3, ... )
Set KeepList=(file=buslist.txt)"
59, "ReduceOption", "{ Default or [null] | Shortlines [Zmag=nnn] | MergeParallel | BreakLoops | Switches | Ends | Laterals}  Strategy for reducing feeders. Default is to eliminate all dangling end buses and buses without load, caps, or taps. 
"Shortlines [Zmag=0.02]" merges short branches with impedance less than Zmag (default = 0.02 ohms) 
"MergeParallel" merges lines that have been found to be in parallel 
"Breakloops" disables one of the lines at the head of a loop. 
"Ends" eliminates dangling ends only.
"Switches" merges switches with downline lines and eliminates dangling switches.
"Laterals [Keepload=Yes*/No]" uses the Remove command to eliminate 1-phase laterals and optionally lump the load back to the 2- or 3-phase feeder (default behavior). 

Marking buses with "Keeplist" will prevent their elimination."
60, "DemandInterval", "{YES/TRUE | NO/FALSE} Default = no. Set for keeping demand interval data for daily, yearly, etc, simulations. Side Effect:  Resets all meters!!!"
61, "%Normal", "Sets the Normal rating of all lines to a specified percent of the emergency rating.  Note: This action takes place immediately. Only the in-memory value is changed for the duration of the run."
62, "DIVerbose", "{YES/TRUE | NO/FALSE} Default = FALSE.  Set to Yes/True if you wish a separate demand interval (DI) file written for each meter.  Otherwise, only the totalizing meters are written."
63, "Casename", "Name of case for yearly simulations with demand interval data. Becomes the name of the subdirectory under which all the year data are stored. Default = circuit name 

Side Effect: Sets the prefix for output files"
64, "Markercode", "Number code for node marker on circuit plots. Number from 0 to 47. Default is 16 (open circle). 24 is solid circle. Try other values for other symbols. See also Nodewidth"
65, "Nodewidth", "Width of node marker. Default=1. See MarkerCode"
66, "Log", "{YES/TRUE | NO/FALSE} Default = FALSE.  Significant solution events are added to the Event Log, primarily for debugging."
67, "Recorder", "{YES/TRUE | NO/FALSE} Default = FALSE. Opens DSSRecorder.dss in DSS install folder and enables recording of all commands that come through the text command interface. Closed by either setting to NO/FALSE or exiting the program. When closed by this command, the file name can be found in the Result. Does not require a circuit defined."
68, "Overloadreport", "{YES/TRUE | NO/FALSE} Default = FALSE. For yearly solution mode, sets overload reporting on/off. DemandInterval must be set to true for this to have effect."
69, "Voltexceptionreport", "{YES/TRUE | NO/FALSE} Default = FALSE. For yearly solution mode, sets voltage exception reporting on/off. DemandInterval must be set to true for this to have effect."
70, "Cfactors", "Sets the CFactors for for all loads in the active circuit to the value given."
71, "ShowExport", "{YES/TRUE | NO/FALSE} Default = FALSE. If YES/TRUE will automatically show the results of an Export Command after it is written."
72, "Numallociterations", "Default is 2. Maximum number of iterations for load allocations for each time the AllocateLoads or Estimate command is given."
73, "DefaultBaseFrequency", "Set Default Base Frequency, Hz. Side effect: Sets solution Frequency and default Circuit Base Frequency. This value is saved when the DSS closes down."
74, "Markswitches", "{YES/TRUE | NO/FALSE}  Default is NO. Mark lines that are switches or are isolated with a symbol. See SwitchMarkerCode."
75, "Switchmarkercode", "Numeric marker code for lines with switches or are isolated from the circuit. Default is 4. See markswitches option."
76, "Daisysize", "Default is 1.0. Relative size (a multiplier applied to default size) of daisy circles on daisy plot."
77, "Marktransformers", "{YES/TRUE | NO/FALSE}  Default is NO. Mark transformer locations with a symbol. See TransMarkerCode. The coordinate of one of the buses for winding 1 or 2 must be defined for the symbol to show"
78, "TransMarkerCode", "Numeric marker code (0..47 see Users Manual) for transformers. Default is 35. See markstransformers option."
79, "TransMarkerSize", "Size of transformer marker. Default is 1."
80, "LoadShapeClass", "={Daily | Yearly | Duty | None*} Default loadshape class to use for mode=time and mode=dynamic simulations. Loads and generators, etc., will follow this shape as time is advanced. Default value is None. That is, Load will not vary with time."
81, "EarthModel", "One of {Carson | FullCarson | Deri*}.  Default is Deri, which isa  fit to the Full Carson that works well into high frequencies. "Carson" is the simplified Carson method that is typically used for 50/60 Hz power flow programs. Applies only to Line objects that use LineGeometry objects to compute impedances."
82, "QueryLog", "{YES/TRUE | NO/FALSE} Default = FALSE. When set to TRUE/YES, clears the query log file and thereafter appends the time-stamped Result string contents to the log file after a query command, ?. "
83, "MarkCapacitors", "{YES/TRUE | NO/FALSE}  Default is NO. Mark Capacitor locations with a symbol. See CapMarkerCode. "
84, "MarkRegulators", "{YES/TRUE | NO/FALSE}  Default is NO. Mark Regulator locations with a symbol. See RegMarkerCode. "
85, "MarkPVSystems", "{YES/TRUE | NO/FALSE}  Default is NO. Mark PVSystem locations with a symbol. See PVMarkerCode and PVMarkerSize. "
86, "MarkStorage", "{YES/TRUE | NO/FALSE}  Default is NO. Mark Storage locations with a symbol. See StoreMarkerCode and StoreMarkerSize. "
87, "CapMarkerCode", "Numeric marker code (0..47 -- see Users Manual) for Capacitors. Default is 38."
88, "RegMarkerCode", "Numeric marker code (0..47 see Users Manual) for Regulators. Default is 17. (red)"
89, "PVMarkerCode", "Numeric marker code (0..47 see Users Manual) for PVSystems and PVSystem. Default is 15."
90, "StoreMarkerCode", "Numeric marker code (0..47 see Users Manual) for Storage elements. Default is 9."
91, "CapMarkerSize", "Size of Capacitor marker. Default is 3."
92, "RegMarkerSize", "Size of Regulator marker. Default is 5."
93, "PVMarkerSize", "Size of PVsystem and PVSystem markers. Default is 1."
94, "StoreMarkerSize", "Size of Storage marker. Default is 1."
95, "NeglectLoadY", "{YES/TRUE | NO/FALSE}  Default is NO. For Harmonic solution, neglect the Load shunt admittance branch that can siphon off some of the Load injection current. 

If YES, the current injected from the LOAD at harmonic frequencies will be nearly ideal."
96, "MarkFuses", "{YES/TRUE | NO/FALSE}  Default is NO. Mark Fuse locations with a symbol. See FuseMarkerCode and FuseMarkerSize. "
97, "FuseMarkerCode", "Numeric marker code (0..47 see Users Manual) for Fuse elements. Default is 25."
98, "FuseMarkerSize", "Size of Fuse marker. Default is 1."
99, "MarkReclosers", "{YES/TRUE | NO/FALSE}  Default is NO. Mark Recloser locations with a symbol. See RecloserMarkerCode and RecloserMarkerSize. "
100, "RecloserMarkerCode", "Numeric marker code (0..47 see Users Manual) for Recloser elements. Default is 17. (color=Lime)"
101, "RecloserMarkerSize", "Size of Recloser marker. Default is 5."
102, "RegistryUpdate", "{YES/TRUE | NO/FALSE}  Default is Yes. Update Windows Registry values upon exiting.  You might want to turn this off if you temporarily change fonts or DefaultBaseFrequency, for example. "
103, "MarkRelays", "{YES/TRUE | NO/FALSE}  Default is NO. Mark Relay locations with a symbol. See RelayMarkerCode and RelayMarkerSize. "
104, "RelayMarkerCode", "Numeric marker code (0..47 see Users Manual) for Relay elements. Default is 17. (Color=Lime)"
105, "RelayMarkerSize", "Size of Relay marker. Default is 5."
106, "ProcessTime", "The time in microseconds to execute the solve process in the most recent time step or solution (read only)"
107, "TotalTime", "The accumulated time in microseconds to solve the circuit since the last reset. Set this value to reset the accumulator."
108, "StepTime", "Process time + meter sampling time in microseconds for most recent time step - (read only)"
109, "SampleEnergyMeters", "{YES/TRUE | NO/FALSE} Overrides default value for sampling EnergyMeter objects at the end of the solution loop. Normally Time and Duty modes do not automatically sample EnergyMeters whereas Daily, Yearly, M1, M2, M3, LD1 and LD2 modes do. Use this Option to turn sampling on or off"
110, "MinIterations", "Minimum number of iterations required for a solution. Default is 2."
111, "DSSVisualizationTool", "Executive.dssvisualizationtool"
112, "KeepLoad", "Keeploads = Y/N option for ReduceOption Laterals option"
113, "Zmag", "Sets the Zmag option (in Ohms) for ReduceOption Shortlines option. Lines have less line mode impedance are reduced."
114, "SeasonRating", "{YES/TRUE | NO/FALSE} Default = FALSE. Enables/disables the seasonal selection of the rating for determining if an element is overloaded. When enabled, the energy meter will look for the rating (NormAmps) using the SeasonSignal  to evaluate if the PDElement is overloaded"
115, "SeasonSignal", "It is the name of the XY curve defining the ratings seasonal change for the PDElements in the model when performing QSTS simulations. The seasonal ratings need to be defined at the PDElement or at the general object definition such as linecodes, lineGeometry, etc."
116, "LineTypes", "Executive.linetypes"
117, "EventLogDefault", "{YES/TRUE | NO/FALSE*} Sets/gets the default for the eventlog. After changing this flags the model needs to be recompiled to take effect."
118, "LongLineCorrection", "Executive.longlinecorrection"
119, "ShowReports", "Executive.showreports"
120, "NumCPUs", "Delivers the number of threads (CPUs) available on the machine (read Only)"
121, "NumCores", "Delivers the number of physical processors (Cores) available on the computer. If your computers processor has less than 64 cores, this number should be equal to the half of the available CPUs, otherwise the number should  be the same (Read Only)"
122, "NumActors", "Delivers the number of Actors created by the user, 1 is the default"
123, "ActiveActor", "Gets/Sets the number of the active actor, if the value is * (set active actor=*), the commands send after this instruction will be applied to all the actors."
124, "CPU", "(default -1)Gets/Sets the CPU to be used by the active actor. If negative (-1) means that the actor affinity is to all the CPUs and will be executed in the
first available CPU and will be reallocated into another CPU dynamically if the operating system requires it. By setting a CPU number for an actor will force
the actor to be executed only on the specific CPU."
125, "ActorProgress", "Gets progress (%) for all the actors when performing a task"
126, "Parallel", "Activates/Deactivates the parallel machine in OpenDSS, if deactivated OpenDSS will behave sequentially"
127, "ConcatenateReports", "Activates/Deactivates the option for concatenate the reports generated by the existing actors, if Yes, every time the user calls a show/export monitor command the report will include the data generated by all the actors, otherwise the report will containThe data generated by the active actor"
128, "NUMANodes", "Delivers the number of Non-uniform memory access nodes (NUMA Nodes) available on the machine (read Only). This information is vital when working with processor clusters (HPC). It will help you know the number of processors in the cluster"
[LineCode]
1, "NPhases", "Number of phases in the line this line code data represents.  Setting this property reinitializes the line code.  Impedance matrix is reset for default symmetrical component."
2, "R1", "Positive-sequence Resistance, ohms per unit length. Setting any of R1, R0, X1, X0, C1, C0 forces the program to use the symmetrical component line definition. See also Rmatrix."
3, "X1", "Positive-sequence Reactance, ohms per unit length. Setting any of R1, R0, X1, X0, C1, C0 forces the program to use the symmetrical component line definition. See also Xmatrix"
4, "R0", "Zero-sequence Resistance, ohms per unit length. Setting any of R1, R0, X1, X0, C1, C0 forces the program to use the symmetrical component line definition."
5, "X0", "Zero-sequence Reactance, ohms per unit length. Setting any of R1, R0, X1, X0, C1, C0 forces the program to use the symmetrical component line definition."
6, "C1", "Positive-sequence capacitance, nf per unit length. Setting any of R1, R0, X1, X0, C1, C0 forces the program to use the symmetrical component line definition. See also Cmatrix and B1."
7, "C0", "Zero-sequence capacitance, nf per unit length. Setting any of R1, R0, X1, X0, C1, C0 forces the program to use the symmetrical component line definition. See also B0."
8, "Units", "One of (ohms per ...) {none|mi|km|kft|m|me|ft|in|cm}.  Default is none; assumes units agree with length units given in Line object"
9, "RMatrix", "Resistance matrix, lower triangle, ohms per unit length. Order of the matrix is the number of phases. May be used to specify the impedance of any line configuration.  For balanced line models, you may use the standard symmetrical component data definition instead."
10, "XMatrix", "Reactance matrix, lower triangle, ohms per unit length. Order of the matrix is the number of phases. May be used to specify the impedance of any line configuration.  For balanced line models, you may use the standard symmetrical component data definition instead."
11, "CMatrix", "Nodal Capacitance matrix, lower triangle, nf per unit length.Order of the matrix is the number of phases. May be used to specify the shunt capacitance of any line configuration.  For balanced line models, you may use the standard symmetrical component data definition instead."
12, "BaseFreq", "Frequency at which impedances are specified."
13, "NormAmps", "Normal ampere limit on line.  This is the so-called Planning Limit. It may also be the value above which load will have to be dropped in a contingency.  Usually about 75% - 80% of the emergency (one-hour) rating."
14, "EmergAmps", "Emergency ampere limit on line (usually one-hour rating)."
15, "FaultRate", "Number of faults per unit length per year."
16, "PctPerm", "Percentage of the faults that become permanent."
17, "Repair", "Hours to repair."
18, "Kron", "Kron = Y/N. Default=N.  Perform Kron reduction on the impedance matrix after it is formed, reducing order by 1. Eliminates the conductor designated by the "Neutral=" property. Do this after the R, X, and C matrices are defined. Ignored for symmetrical components. May be issued more than once to eliminate more than one conductor by resetting the Neutral property after the previous invoking of this property. Generally, you do not want to do a Kron reduction on the matrix if you intend to solve at a frequency other than the base frequency and exploit the Rg and Xg values."
19, "Rg", "Carson earth return resistance per unit length used to compute impedance values at base frequency.  For making better frequency adjustments. Default is 0.01805 = 60 Hz value in ohms per kft (matches default line impedances). This value is required for harmonic solutions if you wish to adjust the earth return impedances for frequency. If not, set both Rg and Xg = 0."
20, "Xg", "Carson earth return reactance per unit length used to compute impedance values at base frequency.  For making better frequency adjustments. Default value is 0.155081 = 60 Hz value in ohms per kft (matches default line impedances). This value is required for harmonic solutions if you wish to adjust the earth return impedances for frequency. If not, set both Rg and Xg = 0."
21, "rho", "Default=100 meter ohms.  Earth resitivity used to compute earth correction factor."
22, "Neutral", "Designates which conductor is the "neutral" conductor that will be eliminated by Kron reduction. Default is the last conductor (nphases value). After Kron reduction is set to 0. Subsequent issuing of Kron=Yes will not do anything until this property is set to a legal value. Applies only to LineCodes defined by R, X, and C matrix."
23, "B1", "Alternate way to specify C1. MicroS per unit length"
24, "B0", "Alternate way to specify C0. MicroS per unit length"
25, "Seasons", "Defines the number of ratings to be defined for the wire, to be used only when defining seasonal ratings using the "Ratings" property."
26, "Ratings", "An array of ratings to be used when the seasonal ratings flag is True. It can be used to insert
multiple ratings to change during a QSTS simulation to evaluate different ratings in lines."
27, "LineType", "Code designating the type of line. 
One of: OH, UG, UG_TS, UG_CN, SWT_LDBRK, SWT_FUSE, SWT_SECT, SWT_REC, SWT_DISC, SWT_BRK, SWT_ELBOW, BUSBAR

OpenDSS currently does not use this internally. For whatever purpose the user defines. Default is OH."
28, "Like", "Make like another object, e.g.:

New Capacitor.C2 like=c1  ..."
[LoadShape]
1, "NPts", "Max number of points to expect in load shape vectors. This gets reset to the number of multiplier values found (in files only) if less than specified."
2, "Interval", "Time interval for fixed interval data, hrs. Default = 1. If Interval = 0 then time data (in hours) may be at either regular or  irregular intervals and time value must be specified using either the Hour property or input files. Then values are interpolated when Interval=0, but not for fixed interval data.  

See also "sinterval" and "minterval"."
3, "Mult", "Array of multiplier values for active power (P) or other key value (such as pu V for Vsource). 

You can also use the syntax: 

mult = (file=filename)     !for text file one value per line
mult = (dblfile=filename)  !for packed file of doubles
mult = (sngfile=filename)  !for packed file of singles 
mult = (file=MyCSVFile.csv, col=3, header=yes)  !for multicolumn CSV files 

Note: this property will reset Npts if the  number of values in the files are fewer.

Same as Pmult"
4, "Hour", "Array of hour values. Only necessary to define for variable interval data (Interval=0). If you set Interval>0 to denote fixed interval data, DO NOT USE THIS PROPERTY. You can also use the syntax: 
hour = (file=filename)     !for text file one value per line
hour = (dblfile=filename)  !for packed file of doubles
hour = (sngfile=filename)  !for packed file of singles "
5, "Mean", "Mean of the active power multipliers.  This is computed on demand the first time a value is needed.  However, you may set it to another value independently. Used for Monte Carlo load simulations."
...